Version 4
SHEET 1 1720 680
WIRE -160 -288 -384 -288
WIRE -384 -224 -384 -288
WIRE -160 -208 -160 -288
WIRE -112 -208 -160 -208
WIRE 448 -208 -16 -208
WIRE -112 -176 -160 -176
WIRE 16 -176 -16 -176
WIRE 448 -160 448 -208
WIRE 912 -160 448 -160
WIRE 1056 -160 912 -160
WIRE 592 -112 352 -112
WIRE 688 -112 592 -112
WIRE 1056 -112 1056 -160
WIRE -384 -96 -384 -144
WIRE -160 -96 -160 -176
WIRE -160 -96 -384 -96
WIRE 912 -64 912 -160
WIRE 592 16 592 -112
WIRE 688 16 688 -112
WIRE 912 16 912 0
WIRE 1056 16 1056 -32
WIRE 1056 16 912 16
WIRE 16 32 16 -176
WIRE 16 32 -96 32
WIRE 912 32 912 16
WIRE 448 64 448 -160
WIRE 352 80 352 -112
WIRE 416 80 352 80
WIRE 592 96 592 80
WIRE 592 96 480 96
WIRE 688 96 592 96
WIRE 784 96 688 96
WIRE 896 96 864 96
WIRE 944 96 896 96
WIRE -176 112 -192 112
WIRE -96 112 -96 32
WIRE -96 112 -112 112
WIRE -16 112 -96 112
WIRE 96 112 64 112
WIRE 208 112 96 112
WIRE 416 112 208 112
WIRE -192 176 -192 112
WIRE 208 224 208 112
WIRE 352 224 352 80
WIRE 96 240 96 112
WIRE 896 256 896 96
WIRE -192 320 -192 256
WIRE 96 320 96 304
WIRE 96 320 -192 320
WIRE 208 320 208 304
WIRE 208 320 96 320
WIRE 352 320 352 304
WIRE 352 320 208 320
WIRE 448 320 448 128
WIRE 448 320 352 320
WIRE 896 320 448 320
WIRE 976 320 896 320
WIRE 448 352 448 320
WIRE 976 368 976 320
FLAG 448 352 0
FLAG 976 368 0
FLAG 912 32 0
FLAG 944 96 ADC
IOPIN 944 96 Out
SYMBOL res 80 96 R90
WINDOW 0 0 56 VBottom 2
WINDOW 3 32 56 VTop 2
SYMATTR InstName R1
SYMATTR Value 10k
SYMATTR SpiceLine tol=1 pwr=0.1
SYMBOL res 192 208 R0
SYMATTR InstName R2
SYMATTR Value 100k
SYMBOL res 336 208 R0
SYMATTR InstName R3
SYMATTR Value 1k
SYMBOL res 672 0 R0
SYMATTR InstName R4
SYMATTR Value 100k
SYMBOL res 880 80 R90
WINDOW 0 0 56 VBottom 2
WINDOW 3 32 56 VTop 2
SYMATTR InstName R5
SYMATTR Value 1k
SYMBOL cap 80 240 R0
SYMATTR InstName C1
SYMATTR Value 100n
SYMBOL cap 576 16 R0
SYMATTR InstName C2
SYMATTR Value 1µ
SYMBOL cap 896 -64 R0
SYMATTR InstName C3
SYMATTR Value 100n
SYMBOL cap 880 256 R0
SYMATTR InstName C4
SYMATTR Value 100n
SYMBOL OpAmps\\LTC1050 448 32 R0
SYMATTR InstName U1
SYMBOL voltage 1056 -128 R0
WINDOW 123 0 0 Left 0
WINDOW 39 0 0 Left 0
SYMATTR InstName V1
SYMATTR Value 5
SYMBOL voltage -384 -240 R0
WINDOW 123 0 0 Left 0
WINDOW 39 0 0 Left 0
SYMATTR InstName V2
SYMATTR Value PULSE(0 1 0.2 0.1 0.1 20)
SYMBOL voltage -192 160 R0
WINDOW 123 0 0 Left 0
WINDOW 39 0 0 Left 0
SYMATTR InstName V3
SYMATTR Value SINE(0 325 50)
SYMBOL cap -112 96 R90
WINDOW 0 0 32 VBottom 2
WINDOW 3 32 32 VTop 2
SYMATTR InstName C5
SYMATTR Value 1p
SYMBOL Capteur_Gaz -64 -192 R0
SYMATTR InstName X1
TEXT 1224 200 Left 2 !.tran 4s
TEXT 1504 88 Left 2 ;.ac dec 100 0.1 1G
TEXT -56 -376 Left 2 !.param G0 10n
